New England/PSSE Cases/Medium/Winter68Tight.RAW
 0,    100.00, 33, 0, 0, 60.00       / August 25, 2017 10:16:30; Simulator Version 19; BuildDate 2016_7_14


    1,'1           ', 345.0000,2,   1,   1,   1,1.02430, -24.6502, 1.06000, 1.00000, 1.06000, 1.00000
    2,'2           ', 345.0000,1,   1,   1,   1,1.02271, -24.9439, 1.04000, 0.95000, 1.04000, 0.95000
    3,'3           ', 138.0000,2,   1,   1,   1,1.02000, -13.3475, 1.06000, 1.00000, 1.06000, 1.00000
    4,'4           ', 138.0000,1,   1,   1,   1,0.96315, -28.9622, 1.04000, 0.95000, 1.04000, 0.95000
    5,'5           ', 230.0000,1,   1,   1,   1,0.97509, -26.3134, 1.04000, 0.95000, 1.04000, 0.95000
    6,'6           ', 138.0000,1,   1,   1,   1,1.00837, -12.9176, 1.04000, 0.95000, 1.04000, 0.95000
    7,'7           ', 138.0000,2,   1,   1,   1,1.02000, -25.7417, 1.06000, 1.00000, 1.06000, 1.00000
    8,'8           ', 230.0000,2,   1,   1,   1,1.02000, -23.7093, 1.06000, 1.00000, 1.06000, 1.00000
    9,'9           ', 345.0000,1,   1,   1,   1,1.02706, -25.2519, 1.04000, 0.95000, 1.04000, 0.95000
   10,'10          ', 138.0000,3,   1,   1,   1,1.02000,   0.0000, 1.06000, 1.00000, 1.06000, 1.00000
   11,'11          ', 138.0000,1,   1,   1,   1,1.01592,  -1.2693, 1.04000, 0.95000, 1.04000, 0.95000
   12,'12          ', 138.0000,1,   1,   1,   1,1.01472,  -2.2841, 1.04000, 0.95000, 1.04000, 0.95000
   13,'13          ', 345.0000,1,   1,   1,   1,1.01399,  -4.9083, 1.04000, 0.95000, 1.04000, 0.95000
   14,'14          ', 230.0000,1,   1,   1,   1,1.01199, -13.0772, 1.04000, 0.95000, 1.04000, 0.95000
   15,'15          ', 230.0000,1,   1,   1,   1,1.00341, -17.8742, 1.04000, 0.95000, 1.04000, 0.95000
   16,'16          ', 138.0000,1,   1,   1,   1,1.00104, -20.8591, 1.04000, 0.95000, 1.04000, 0.95000
   17,'17          ', 138.0000,1,   1,   1,   1,0.97524, -23.5286, 1.04000, 0.95000, 1.04000, 0.95000
   18,'18          ', 138.0000,1,   1,   1,   1,0.97112, -22.8200, 1.04000, 0.95000, 1.04000, 0.95000
   19,'19          ', 138.0000,1,   1,   1,   1,0.98397, -20.5925, 1.04000, 0.95000, 1.04000, 0.95000
   20,'20          ',  69.0000,1,   1,   1,   1,0.99711, -17.5977, 1.04000, 0.95000, 1.04000, 0.95000
   21,'21          ', 138.0000,1,   1,   1,   1,0.97082, -24.0080, 1.04000, 0.95000, 1.04000, 0.95000
   22,'22          ', 230.0000,1,   1,   1,   1,0.97020,  -7.9944, 1.04000, 0.95000, 1.04000, 0.95000
   23,'23          ', 230.0000,1,   1,   1,   1,0.98560, -11.0364, 1.04000, 0.95000, 1.04000, 0.95000
   24,'24          ', 230.0000,2,   1,   1,   1,1.02000, -14.7039, 1.06000, 1.00000, 1.06000, 1.00000
   25,'25          ', 230.0000,1,   1,   1,   1,1.00227, -25.2636, 1.04000, 0.95000, 1.04000, 0.95000
   26,'26          ', 345.0000,2,   1,   1,   1,1.02000, -33.9052, 1.06000, 1.00000, 1.06000, 1.00000
   27,'27          ', 230.0000,1,   1,   1,   1,0.98193, -32.3452, 1.04000, 0.95000, 1.04000, 0.95000
   28,'28          ', 138.0000,2,   1,   1,   1,1.02000, -25.5073, 1.06000, 1.00000, 1.06000, 1.00000
   29,'29          ', 138.0000,1,   1,   1,   1,1.01390, -23.2137, 1.04000, 0.95000, 1.04000, 0.95000
   30,'30          ',  14.0000,2,   1,   1,   1,1.02000, -23.0759, 1.06000, 1.00000, 1.06000, 1.00000
   31,'31          ',  14.0000,2,   1,   1,   1,1.02000,  -7.8667, 1.06000, 1.00000, 1.06000, 1.00000
   32,'32          ',  14.0000,2,   1,   1,   1,1.02000,   2.6993, 1.06000, 1.00000, 1.06000, 1.00000
   33,'33          ',  14.0000,2,   1,   1,   1,1.02000, -17.1086, 1.06000, 1.00000, 1.06000, 1.00000
   34,'34          ',  14.0000,2,   1,   1,   1,1.02000, -14.0091, 1.06000, 1.00000, 1.06000, 1.00000
   35,'35          ',  14.0000,2,   1,   1,   1,0.99266,   3.8817, 1.06000, 1.00000, 1.06000, 1.00000
   36,'36          ',  14.0000,2,   1,   1,   1,1.02000,  -7.8101, 1.06000, 1.00000, 1.06000, 1.00000
   37,'37          ',  14.0000,2,   1,   1,   1,1.02000, -23.3347, 1.06000, 1.00000, 1.06000, 1.00000
   38,'38          ',  14.0000,2,   1,   1,   1,1.02000, -20.5246, 1.06000, 1.00000, 1.06000, 1.00000
   39,'39          ', 345.0000,1,   1,   1,   1,1.01601, -31.7221, 1.04000, 0.95000, 1.04000, 0.95000
   40,'40          ', 345.0000,1,   1,   1,   1,1.00902, -35.3807, 1.04000, 0.95000, 1.04000, 0.95000
   41,'41          ', 345.0000,1,   1,   1,   1,0.98789, -31.6750, 1.04000, 0.95000, 1.04000, 0.95000
   42,'42          ', 345.0000,1,   1,   1,   1,1.01978, -36.1809, 1.04000, 0.95000, 1.04000, 0.95000
   43,'43          ', 345.0000,1,   1,   1,   1,1.01549, -34.3052, 1.04000, 0.95000, 1.04000, 0.95000
   44,'44          ', 230.0000,1,   1,   1,   1,1.00498, -27.3665, 1.04000, 0.95000, 1.04000, 0.95000
   45,'45          ', 345.0000,1,   1,   1,   1,1.01379, -27.0799, 1.04000, 0.95000, 1.04000, 0.95000
   46,'46          ', 138.0000,1,   1,   1,   1,0.94822, -29.5146, 1.04000, 0.95000, 1.04000, 0.95000
   47,'47          ', 138.0000,1,   1,   1,   1,0.90062, -33.4797, 1.04000, 0.95000, 1.04000, 0.95000
   48,'48          ', 345.0000,1,   1,   1,   1,0.96059, -29.4790, 1.04000, 0.95000, 1.04000, 0.95000
   49,'49          ', 138.0000,2,   1,   1,   1,1.02000, -22.9685, 1.06000, 1.00000, 1.06000, 1.00000
   50,'50          ', 138.0000,1,   1,   1,   1,0.97698, -28.4882, 1.04000, 0.95000, 1.04000, 0.95000
   51,'51          ', 138.0000,1,   1,   1,   1,0.98356, -33.3259, 1.04000, 0.95000, 1.04000, 0.95000
   52,'52          ', 345.0000,2,   1,   1,   1,1.02000, -26.8127, 1.06000, 1.00000, 1.06000, 1.00000
   53,'53          ', 138.0000,1,   1,   1,   1,0.96885, -32.0836, 1.04000, 0.95000, 1.04000, 0.95000
   54,'54          ', 230.0000,2,   1,   1,   1,1.02000, -23.0781, 1.06000, 1.00000, 1.06000, 1.00000
   55,'55          ', 230.0000,1,   1,   1,   1,1.00179, -26.4659, 1.04000, 0.95000, 1.04000, 0.95000
   56,'56          ', 345.0000,2,   1,   1,   1,1.02000, -13.1442, 1.06000, 1.00000, 1.06000, 1.00000
   57,'57          ', 138.0000,1,   1,   1,   1,0.92978, -31.6885, 1.04000, 0.95000, 1.04000, 0.95000
   58,'58          ', 345.0000,1,   1,   1,   1,0.99681, -14.3321, 1.04000, 0.95000, 1.04000, 0.95000
   59,'59          ', 345.0000,1,   1,   1,   1,1.01077, -16.7903, 1.04000, 0.95000, 1.04000, 0.95000
   60,'60          ', 138.0000,1,   1,   1,   1,0.93067, -29.0574, 1.04000, 0.95000, 1.04000, 0.95000
   61,'61          ', 230.0000,1,   1,   1,   1,1.01002, -19.7857, 1.04000, 0.95000, 1.04000, 0.95000
   62,'62          ', 345.0000,1,   1,   1,   1,0.99013, -15.3078, 1.04000, 0.95000, 1.04000, 0.95000
   63,'63          ', 138.0000,1,   1,   1,   1,0.92183, -31.1630, 1.04000, 0.95000, 1.04000, 0.95000
   64,'64          ', 138.0000,1,   1,   1,   1,0.95097, -22.2074, 1.04000, 0.95000, 1.04000, 0.95000
   65,'65          ', 138.0000,1,   1,   1,   1,0.99249, -26.5804, 1.04000, 0.95000, 1.04000, 0.95000
   66,'66          ', 345.0000,1,   1,   1,   1,1.00094, -14.0208, 1.04000, 0.95000, 1.04000, 0.95000
   67,'67          ', 138.0000,1,   1,   1,   1,0.97031, -33.2384, 1.04000, 0.95000, 1.04000, 0.95000
   68,'68          ', 138.0000,1,   1,   1,   1,0.98220, -31.5862, 1.04000, 0.95000, 1.04000, 0.95000
   69,'69          ', 345.0000,2,   1,   1,   1,1.02000,  -5.1163, 1.06000, 1.00000, 1.06000, 1.00000
   70,'70          ', 138.0000,1,   1,   1,   1,1.00620,  -7.6824, 1.04000, 0.95000, 1.04000, 0.95000
   71,'71          ', 345.0000,1,   1,   1,   1,1.00830, -13.3002, 1.04000, 0.95000, 1.04000, 0.95000
   72,'72          ', 138.0000,2,   1,   1,   1,0.98700, -33.2495, 1.06000, 1.00000, 1.06000, 1.00000
   73,'73          ', 138.0000,1,   1,   1,   1,0.98329, -33.3209, 1.04000, 0.95000, 1.04000, 0.95000
   74,'74          ', 345.0000,1,   1,   1,   1,0.98060, -26.7756, 1.04000, 0.95000, 1.04000, 0.95000
   75,'75          ', 138.0000,1,   1,   1,   1,0.95180, -29.4986, 1.04000, 0.95000, 1.04000, 0.95000
   76,'76          ', 345.0000,2,   1,   1,   1,1.02000, -12.0693, 1.06000, 1.00000, 1.06000, 1.00000
   77,'77          ', 138.0000,1,   1,   1,   1,0.99004, -29.7731, 1.04000, 0.95000, 1.04000, 0.95000
   78,'78          ', 345.0000,2,   1,   1,   1,1.02000, -35.9935, 1.06000, 1.00000, 1.06000, 1.00000
   79,'79          ', 345.0000,1,   1,   1,   1,1.03529, -43.2362, 1.04000, 0.95000, 1.04000, 0.95000
   80,'80          ', 345.0000,2,   1,   1,   1,1.02000, -37.9553, 1.06000, 1.00000, 1.06000, 1.00000
   81,'81          ', 345.0000,1,   1,   1,   1,1.01575, -36.1683, 1.04000, 0.95000, 1.04000, 0.95000
   82,'82          ', 345.0000,2,   1,   1,   1,1.02000, -30.3703, 1.06000, 1.00000, 1.06000, 1.00000
   83,'83          ', 345.0000,1,   1,   1,   1,1.01993, -29.9789, 1.04000, 0.95000, 1.04000, 0.95000
   84,'84          ', 138.0000,2,   1,   1,   1,1.02000, -26.8785, 1.06000, 1.00000, 1.06000, 1.00000
   85,'85          ', 230.0000,1,   1,   1,   1,0.98617, -29.8449, 1.04000, 0.95000, 1.04000, 0.95000
   86,'86          ', 138.0000,1,   1,   1,   1,0.98411, -28.6074, 1.04000, 0.95000, 1.04000, 0.95000
   87,'87          ', 345.0000,1,   1,   1,   1,1.04283, -43.1556, 1.04000, 0.95000, 1.04000, 0.95000
   88,'88          ', 138.0000,1,   1,   1,   1,1.01079, -26.7667, 1.04000, 0.95000, 1.04000, 0.95000
   89,'89          ', 138.0000,1,   1,   1,   1,0.94139, -34.5691, 1.04000, 0.95000, 1.04000, 0.95000
   90,'90          ', 230.0000,1,   1,   1,   1,0.97372, -11.9338, 1.04000, 0.95000, 1.04000, 0.95000
   91,'91          ', 230.0000,1,   1,   1,   1,0.95945, -14.0468, 1.04000, 0.95000, 1.04000, 0.95000
   92,'92          ', 345.0000,1,   1,   1,   1,0.95788, -13.9836, 1.04000, 0.95000, 1.04000, 0.95000
   93,'93          ', 345.0000,1,   1,   1,   1,0.96428, -15.5151, 1.04000, 0.95000, 1.04000, 0.95000
   94,'94          ', 138.0000,1,   1,   1,   1,0.98553, -22.9102, 1.04000, 0.95000, 1.04000, 0.95000
   95,'95          ', 138.0000,1,   1,   1,   1,0.96896, -22.1864, 1.04000, 0.95000, 1.04000, 0.95000
   96,'96          ', 138.0000,1,   1,   1,   1,0.96916, -21.6516, 1.04000, 0.95000, 1.04000, 0.95000
   97,'97          ', 345.0000,1,   1,   1,   1,0.98321, -18.4728, 1.04000, 0.95000, 1.04000, 0.95000
   98,'98          ', 345.0000,1,   1,   1,   1,1.00995, -18.9065, 1.04000, 0.95000, 1.04000, 0.95000
   99,'99          ', 345.0000,1,   1,   1,   1,0.97174, -20.0926, 1.04000, 0.95000, 1.04000, 0.95000
  100,'100         ', 138.0000,1,   1,   1,   1,0.96591, -10.4558, 1.04000, 0.95000, 1.04000, 0.95000
  101,'101         ', 345.0000,1,   1,   1,   1,0.96070, -15.9688, 1.04000, 0.95000, 1.04000, 0.95000
  102,'102         ', 138.0000,1,   1,   1,   1,0.96962, -23.7441, 1.04000, 0.95000, 1.04000, 0.95000
  103,'103         ', 138.0000,2,   1,   1,   1,1.02000, -20.5160, 1.06000, 1.00000, 1.06000, 1.00000
  104,'104         ', 138.0000,1,   1,   1,   1,0.95865, -24.0127, 1.04000, 0.95000, 1.04000, 0.95000
  105,'105         ', 138.0000,1,   1,   1,   1,0.97271, -22.3466, 1.04000, 0.95000, 1.04000, 0.95000
  106,'106         ', 138.0000,1,   1,   1,   1,0.95858, -24.5597, 1.04000, 0.95000, 1.04000, 0.95000
  107,'107         ', 138.0000,1,   1,   1,   1,0.96140, -23.9670, 1.04000, 0.95000, 1.04000, 0.95000
  108,'108         ', 230.0000,1,   1,   1,   1,0.95752, -23.8056, 1.04000, 0.95000, 1.04000, 0.95000
  109,'109         ', 138.0000,1,   1,   1,   1,0.96222, -25.8885, 1.04000, 0.95000, 1.04000, 0.95000
  110,'110         ', 138.0000,1,   1,   1,   1,0.97502, -21.5012, 1.04000, 0.95000, 1.04000, 0.95000
  111,'111         ', 345.0000,1,   1,   1,   1,0.97148, -21.2752, 1.04000, 0.95000, 1.04000, 0.95000
  112,'112         ', 138.0000,1,   1,   1,   1,0.94227, -27.1080, 1.04000, 0.95000, 1.04000, 0.95000
  113,'113         ', 138.0000,1,   1,   1,   1,0.92927, -28.4018, 1.04000, 0.95000, 1.04000, 0.95000
  114,'114         ', 138.0000,1,   1,   1,   1,0.96642, -23.3668, 1.04000, 0.95000, 1.04000, 0.95000
  115,'115         ', 345.0000,1,   1,   1,   1,0.96225, -13.4074, 1.04000, 0.95000, 1.04000, 0.95000
  116,'116         ', 230.0000,1,   1,   1,   1,0.98860, -22.9313, 1.04000, 0.95000, 1.04000, 0.95000
  117,'117         ', 138.0000,1,   1,   1,   1,0.98113, -23.7068, 1.04000, 0.95000, 1.04000, 0.95000
  118,'118         ', 138.0000,1,   1,   1,   1,0.96896, -22.8662, 1.04000, 0.95000, 1.04000, 0.95000
  119,'119         ', 138.0000,1,   1,   1,   1,0.96321, -23.6412, 1.04000, 0.95000, 1.04000, 0.95000
  120,'120         ', 230.0000,2,   1,   1,   1,0.99764, -23.0765, 1.06000, 1.00000, 1.06000, 1.00000
  121,'121         ', 230.0000,1,   1,   1,   1,0.99186, -23.6397, 1.04000, 0.95000, 1.04000, 0.95000
  122,'122         ', 138.0000,1,   1,   1,   1,0.96239, -25.8791, 1.04000, 0.95000, 1.04000, 0.95000
  123,'123         ', 230.0000,1,   1,   1,   1,0.99353, -21.9209, 1.04000, 0.95000, 1.04000, 0.95000
  124,'124         ', 230.0000,1,   1,   1,   1,0.95627, -27.6891, 1.04000, 0.95000, 1.04000, 0.95000
  125,'125         ', 138.0000,1,   1,   1,   1,0.96147, -25.8758, 1.04000, 0.95000, 1.04000, 0.95000
  126,'126         ', 230.0000,1,   1,   1,   1,0.96882, -26.2324, 1.04000, 0.95000, 1.04000, 0.95000
  127,'127         ', 230.0000,1,   1,   1,   1,0.96530, -26.8905, 1.04000, 0.95000, 1.04000, 0.95000
  128,'128         ', 138.0000,2,   1,   1,   1,1.02000, -17.1325, 1.06000, 1.00000, 1.06000, 1.00000
  129,'129         ', 138.0000,1,   1,   1,   1,0.95472, -25.9522, 1.04000, 0.95000, 1.04000, 0.95000
  130,'130         ', 138.0000,2,   1,   1,   1,1.02000, -20.1519, 1.06000, 1.00000, 1.06000, 1.00000
  131,'131         ', 138.0000,1,   1,   1,   1,0.94641, -27.1377, 1.04000, 0.95000, 1.04000, 0.95000
  132,'132         ', 230.0000,1,   1,   1,   1,0.97566, -25.0944, 1.04000, 0.95000, 1.04000, 0.95000
  133,'133         ', 230.0000,1,   1,   1,   1,0.97716, -26.1915, 1.04000, 0.95000, 1.04000, 0.95000
  134,'134         ', 230.0000,1,   1,   1,   1,0.96893, -25.0448, 1.04000, 0.95000, 1.04000, 0.95000
  135,'135         ', 345.0000,1,   1,   1,   1,0.99763, -21.8484, 1.04000, 0.95000, 1.04000, 0.95000
  136,'136         ', 138.0000,1,   1,   1,   1,0.96320, -23.6094, 1.04000, 0.95000, 1.04000, 0.95000
  137,'137         ', 345.0000,1,   1,   1,   1,1.00783, -20.7459, 1.04000, 0.95000, 1.04000, 0.95000
  138,'138         ', 345.0000,1,   1,   1,   1,0.96983, -20.5183, 1.04000, 0.95000, 1.04000, 0.95000
  139,'139         ', 345.0000,1,   1,   1,   1,1.01406, -26.3232, 1.04000, 0.95000, 1.04000, 0.95000
  140,'140         ', 138.0000,1,   1,   1,   1,0.97910,  -8.7003, 1.04000, 0.95000, 1.04000, 0.95000
  141,'141         ', 345.0000,2,   1,   1,   1,1.00700,  -4.0693, 1.06000, 1.00000, 1.06000, 1.00000
  142,'142         ', 230.0000,1,   1,   1,   1,0.96079, -27.2129, 1.04000, 0.95000, 1.04000, 0.95000
  143,'143         ', 230.0000,2,   1,   1,   1,1.02000, -20.1399, 1.06000, 1.00000, 1.06000, 1.00000
  144,'144         ', 230.0000,1,   1,   1,   1,1.01054, -21.5445, 1.04000, 0.95000, 1.04000, 0.95000
  145,'145         ', 138.0000,1,   1,   1,   1,0.98470, -21.6262, 1.04000, 0.95000, 1.04000, 0.95000
  146,'146         ', 345.0000,2,   1,   1,   1,1.01420, -19.9200, 1.06000, 1.00000, 1.06000, 1.00000
  147,'147         ', 138.0000,1,   1,   1,   1,0.95788, -24.4720, 1.04000, 0.95000, 1.04000, 0.95000
  148,'148         ', 345.0000,1,   1,   1,   1,0.96424, -14.8605, 1.04000, 0.95000, 1.04000, 0.95000
  149,'149         ', 138.0000,2,   1,   1,   1,1.02000, -19.1339, 1.06000, 1.00000, 1.06000, 1.00000
  150,'150         ', 345.0000,1,   1,   1,   1,0.95001, -31.1032, 1.04000, 0.95000, 1.04000, 0.95000
  151,'151         ', 345.0000,1,   1,   1,   1,1.00975, -20.4988, 1.04000, 0.95000, 1.04000, 0.95000
  152,'152         ', 138.0000,1,   1,   1,   1,0.93809, -27.3581, 1.04000, 0.95000, 1.04000, 0.95000
  153,'153         ', 345.0000,1,   1,   1,   1,0.99292, -22.3400, 1.04000, 0.95000, 1.04000, 0.95000
  154,'154         ', 230.0000,1,   1,   1,   1,0.97665, -30.0637, 1.04000, 0.95000, 1.04000, 0.95000
  155,'155         ', 138.0000,1,   1,   1,   1,0.96076, -30.0881, 1.04000, 0.95000, 1.04000, 0.95000
  156,'156         ', 345.0000,1,   1,   1,   1,1.00258, -23.2785, 1.04000, 0.95000, 1.04000, 0.95000
  157,'157         ', 138.0000,2,   1,   1,   1,1.02000, -20.7121, 1.06000, 1.00000, 1.06000, 1.00000
  158,'158         ', 138.0000,1,   1,   1,   1,0.98288, -26.2774, 1.04000, 0.95000, 1.04000, 0.95000
  159,'159         ', 345.0000,1,   1,   1,   1,0.99632, -28.4643, 1.04000, 0.95000, 1.04000, 0.95000
  160,'160         ', 230.0000,1,   1,   1,   1,0.96042, -33.2990, 1.04000, 0.95000, 1.04000, 0.95000
  161,'161         ', 138.0000,1,   1,   1,   1,0.98511, -26.6021, 1.04000, 0.95000, 1.04000, 0.95000
  162,'162         ', 345.0000,2,   1,   1,   1,1.02000, -18.8017, 1.06000, 1.00000, 1.06000, 1.00000
  163,'163         ', 230.0000,1,   1,   1,   1,0.99893, -24.0488, 1.04000, 0.95000, 1.04000, 0.95000
  164,'164         ', 138.0000,1,   1,   1,   1,0.97360, -25.2048, 1.04000, 0.95000, 1.04000, 0.95000
  165,'165         ', 230.0000,2,   1,   1,   1,1.02000, -15.4820, 1.06000, 1.00000, 1.06000, 1.00000
  166,'166         ', 138.0000,2,   1,   1,   1,1.02000, -21.7020, 1.06000, 1.00000, 1.06000, 1.00000
  167,'167         ', 345.0000,1,   1,   1,   1,1.02300, -35.1318, 1.04000, 0.95000, 1.04000, 0.95000
  168,'168         ', 230.0000,1,   1,   1,   1,0.98086, -26.7693, 1.04000, 0.95000, 1.04000, 0.95000
  169,'169         ', 138.0000,1,   1,   1,   1,0.98865, -25.6609, 1.04000, 0.95000, 1.04000, 0.95000
  170,'170         ', 138.0000,1,   1,   1,   1,0.93999, -13.3504, 1.04000, 0.95000, 1.04000, 0.95000
  171,'171         ', 138.0000,1,   1,   1,   1,0.94742, -12.6377, 1.04000, 0.95000, 1.04000, 0.95000
  172,'172         ', 138.0000,1,   1,   1,   1,0.97100,  -9.9108, 1.04000, 0.95000, 1.04000, 0.95000
  173,'173         ', 138.0000,1,   1,   1,   1,0.96732,  -9.4243, 1.04000, 0.95000, 1.04000, 0.95000
  174,'174         ', 345.0000,1,   1,   1,   1,1.00699, -14.7843, 1.04000, 0.95000, 1.04000, 0.95000
  175,'175         ', 138.0000,2,   1,   1,   1,1.02000, -14.0409, 1.06000, 1.00000, 1.06000, 1.00000
  176,'176         ', 345.0000,2,   1,   1,   1,1.02000, -19.8426, 1.06000, 1.00000, 1.06000, 1.00000
  177,'177         ', 230.0000,1,   1,   1,   1,1.00811, -15.9657, 1.04000, 0.95000, 1.04000, 0.95000
  178,'178         ', 138.0000,1,   1,   1,   1,0.98640, -19.5893, 1.04000, 0.95000, 1.04000, 0.95000
  179,'179         ', 138.0000,1,   1,   1,   1,0.98535, -19.6614, 1.04000, 0.95000, 1.04000, 0.95000
  180,'180         ', 345.0000,1,   1,   1,   1,1.00694, -14.8433, 1.04000, 0.95000, 1.04000, 0.95000
  181,'181         ', 345.0000,1,   1,   1,   1,1.02598, -19.0088, 1.04000, 0.95000, 1.04000, 0.95000
  182,'182         ', 345.0000,1,   1,   1,   1,0.98164, -26.3009, 1.04000, 0.95000, 1.04000, 0.95000
  183,'183         ', 345.0000,1,   1,   1,   1,0.99820, -26.5329, 1.04000, 0.95000, 1.04000, 0.95000
  184,'184         ', 230.0000,1,   1,   1,   1,1.00968, -15.0161, 1.04000, 0.95000, 1.04000, 0.95000
  185,'185         ', 345.0000,1,   1,   1,   1,1.00495, -12.5459, 1.04000, 0.95000, 1.04000, 0.95000
  186,'186         ', 345.0000,1,   1,   1,   1,1.00211, -27.4201, 1.04000, 0.95000, 1.04000, 0.95000
  187,'187         ', 345.0000,1,   1,   1,   1,1.01691, -25.1694, 1.04000, 0.95000, 1.04000, 0.95000
  188,'188         ', 345.0000,1,   1,   1,   1,1.01480,  -4.2616, 1.04000, 0.95000, 1.04000, 0.95000
  189,'189         ', 345.0000,1,   1,   1,   1,1.01431,  -4.9672, 1.04000, 0.95000, 1.04000, 0.95000
  190,'190         ', 345.0000,1,   1,   1,   1,1.01162, -11.2669, 1.04000, 0.95000, 1.04000, 0.95000
  191,'191         ', 345.0000,1,   1,   1,   1,1.01490, -15.8139, 1.04000, 0.95000, 1.04000, 0.95000
  192,'192         ', 230.0000,1,   1,   1,   1,1.00590, -20.4169, 1.04000, 0.95000, 1.04000, 0.95000
  193,'193         ', 345.0000,1,   1,   1,   1,1.00930, -19.1246, 1.04000, 0.95000, 1.04000, 0.95000
  194,'194         ', 345.0000,1,   1,   1,   1,1.00522, -21.0485, 1.04000, 0.95000, 1.04000, 0.95000
  195,'195         ', 230.0000,1,   1,   1,   1,0.96713, -22.4334, 1.04000, 0.95000, 1.04000, 0.95000
  196,'196         ', 345.0000,1,   1,   1,   1,0.97104, -20.4860, 1.04000, 0.95000, 1.04000, 0.95000
  197,'197         ', 230.0000,1,   1,   1,   1,0.97601, -23.4139, 1.04000, 0.95000, 1.04000, 0.95000
  198,'198         ', 345.0000,1,   1,   1,   1,0.97109, -20.4266, 1.04000, 0.95000, 1.04000, 0.95000
  199,'199         ', 345.0000,1,   1,   1,   1,0.96774, -12.6600, 1.04000, 0.95000, 1.04000, 0.95000
  200,'200         ', 345.0000,1,   1,   1,   1,1.00724, -16.5220, 1.04000, 0.95000, 1.04000, 0.95000
...
0 / END OF BUS DATA, BEGIN LOAD DATA
    1,'1 ',1,   1,   1,     0.000,     0.000,     0.000,     0.000,     0.000,     0.000,   1,1
    2,'1 ',1,   1,   1,   105.784,    32.569,     0.000,     0.000,     0.000,     0.000,   1,1
    3,'1 ',1,   1,   1,     0.000,     0.000,     0.000,     0.000,     0.000,     0.000,   1,1
    4,'1 ',1,   1,   1,    81.146,    24.181,     0.000,     0.000,     0.000,     0.000,   1,1
    5,'1 ',1,   1,   1,    99.337,    32.746,     0.000,     0.000,     0.000,     0.000,   1,1
    6,'1 ',1,   1,   1,    91.744,    27.544,     0.000,     0.000,     0.000,     0.000,   1,1
    7,'1 ',1,   1,   1,   155.568,    49.968,     0.000,     0.000,     0.000,     0.000,   1,1
    8,'1 ',1,   1,   1,   120.687,    37.933,     0.000,     0.000,     0.000,     0.000,   1,1
    9,'1 ',1,   1,   1,     0.000,     0.000,     0.000,     0.000,     0.000,     0.000,   1,1
   10,'1 ',1,   1,   1,    91.805,    31.087,     0.000,     0.000,     0.000,     0.000,   1,1
   11,'1 ',1,   1,   1,     0.000,     0.000,     0.000,     0.000,     0.000,     0.000,   1,1
   12,'1 ',1,   1,   1,     2.740,     0.834,     0.000,     0.000,     0.000,     0.000,   1,1
   13,'1 ',1,   1,   1,     0.000,     0.000,     0.000,     0.000,     0.000,     0.000,   1,1
   14,'1 ',1,   1,   1,   117.838,    34.013,     0.000,     0.000,     0.000,     0.000,   1,1
   15,'1 ',1,   1,   1,   139.976,    41.770,     0.000,     0.000,     0.000,     0.000,   1,1
   16,'1 ',1,   1,   1,   154.687,    44.924,     0.000,     0.000,     0.000,     0.000,   1,1
   17,'1 ',1,   1,   1,    87.446,    29.459,     0.000,     0.000,     0.000,     0.000,   1,1
   18,'1 ',1,   1,   1,    98.543,    29.234,     0.000,     0.000,     0.000,     0.000,   1,1
   19,'1 ',1,   1,   1,   101.907,    33.621,     0.000,     0.000,     0.000,     0.000,   1,1
   20,'1 ',1,   1,   1,   100.834,    31.068,     0.000,     0.000,     0.000,     0.000,   1,1
   21,'1 ',1,   1,   1,   138.525,    38.628,     0.000,     0.000,     0.000,     0.000,   1,1
   22,'1 ',1,   1,   1,   126.599,    35.955,     0.000,     0.000,     0.000,     0.000,   1,1
   23,'1 ',1,   1,   1,    96.750,    30.447,     0.000,     0.000,     0.000,     0.000,   1,1
   24,'1 ',1,   1,   1,   117.304,    37.778,     0.000,     0.000,     0.000,     0.000,   1,1
   25,'1 ',1,   1,   1,    73.098,    24.586,     0.000,     0.000,     0.000,     0.000,   1,1
   26,'1 ',1,   1,   1,    89.282,    24.237,     0.000,     0.000,     0.000,     0.000,   1,1
   27,'1 ',1,   1,   1,    96.678,    32.762,     0.000,     0.000,     0.000,     0.000,   1,1
   28,'1 ',1,   1,   1,   133.721,    38.688,     0.000,     0.000,     0.000,     0.000,   1,1
   29,'1 ',1,   1,   1,    84.838,    30.598,     0.000,     0.000,     0.000,     0.000,   1,1
   30,'1 ',1,   1,   1,     0.000,     0.000,     0.000,     0.000,     0.000,     0.000,   1,1
   31,'1 ',1,   1,   1,     0.000,     0.000,     0.000,     0.000,     0.000,     0.000,   1,1
   32,'1 ',1,   1,   1,     0.000,     0.000,     0.000,     0.000,     0.000,     0.000,   1,1
   33,'1 ',1,   1,   1,   127.802,    30.723,     0.000,     0.000,     0.000,     0.000,   1,1
   34,'1 ',1,   1,   1,    83.582,    26.650,     0.000,     0.000,     0.000,     0.000,   1,1
   35,'1 ',1,   1,   1,     0.000,     0.000,     0.000,     0.000,     0.000,     0.000,   1,1
   36,'1 ',1,   1,   1,     0.000,     0.000,     0.000,     0.000,     0.000,     0.000,   1,1
   37,'1 ',1,   1,   1,     0.000,     0.000,     0.000,     0.000,     0.000,     0.000,   1,1
   38,'1 ',1,   1,   1,     0.000,     0.000,     0.000,     0.000,     0.000,     0.000,   1,1
   39,'1 ',1,   1,   1,    85.106,    28.517,     0.000,     0.000,     0.000,     0.000,   1,1
   40,'1 ',1,   1,   1,    85.320,    26.272,     0.000,     0.000,     0.000,     0.000,   1,1
   41,'1 ',1,   1,   1,   109.100,    31.131,     0.000,     0.000,     0.000,     0.000,   1,1
   42,'1 ',1,   1,   1,   120.422,    31.571,     0.000,     0.000,     0.000,     0.000,   1,1
   43,'1 ',1,   1,   1,   112.890,    38.686,     0.000,     0.000,     0.000,     0.000,   1,1
   44,'1 ',1,   1,   1,    86.262,    30.396,     0.000,     0.000,     0.000,     0.000,   1,1
   45,'1 ',1,   1,   1,   121.022,    34.166,     0.000,     0.000,     0.000,     0.000,   1,1
   46,'1 ',1,   1,   1,   108.540,    36.423,     0.000,     0.000,     0.000,     0.000,   1,1
   47,'1 ',1,   1,   1,    99.269,    34.812,     0.000,     0.000,     0.000,     0.000,   1,1
   48,'1 ',1,   1,   1,   117.498,    38.681,     0.000,     0.000,     0.000,     0.000,   1,1
   49,'1 ',1,   1,   1,    78.999,    30.183,     0.000,     0.000,     0.000,     0.000,   1,1
   50,'1 ',1,   1,   1,   112.827,    39.049,     0.000,     0.000,     0.000,     0.000,   1,1
   51,'1 ',1,   1,   1,    99.518,    32.327,     0.000,     0.000,     0.000,     0.000,   1,1
   52,'1 ',1,   1,   1,   124.233,    34.698,     0.000,     0.000,     0.000,     0.000,   1,1
   53,'1 ',1,   1,   1,   177.170,    57.136,     0.000,     0.000,     0.000,     0.000,   1,1
   54,'1 ',1,   1,   1,    87.820,    35.428,     0.000,     0.000,     0.000,     0.000,   1,1
   55,'1 ',1,   1,   1,   118.558,    41.264,     0.000,     0.000,     0.000,     0.000,   1,1
   56,'1 ',1,   1,   1,   127.033,    38.647,     0.000,     0.000,     0.000,     0.000,   1,1
   57,'1 ',1,   1,   1,    75.261,    28.029,     0.000,     0.000,     0.000,     0.000,   1,1
   58,'1 ',1,   1,   1,   150.354,    41.290,     0.000,     0.000,     0.000,     0.000,   1,1
   59,'1 ',1,   1,   1,    96.359,    31.774,     0.000,     0.000,     0.000,     0.000,   1,1
   60,'1 ',1,   1,   1,   107.557,    37.389,     0.000,     0.000,     0.000,     0.000,   1,1
   61,'1 ',1,   1,   1,   126.748,    36.043,     0.000,     0.000,     0.000,     0.000,   1,1
   62,'1 ',1,   1,   1,   117.014,    33.092,     0.000,     0.000,     0.000,     0.000,   1,1
   63,'1 ',1,   1,   1,    93.057,    35.220,     0.000,     0.000,     0.000,     0.000,   1,1
   64,'1 ',1,   1,   1,   189.925,    60.081,     0.000,     0.000,     0.000,     0.000,   1,1
   65,'1 ',1,   1,   1,    81.696,    30.660,     0.000,     0.000,     0.000,     0.000,   1,1
   66,'1 ',1,   1,   1,    94.048,    36.082,     0.000,     0.000,     0.000,     0.000,   1,1
   67,'1 ',1,   1,   1,   106.956,    30.794,     0.000,     0.000,     0.000,     0.000,   1,1
   68,'1 ',1,   1,   1,   127.760,    39.841,     0.000,     0.000,     0.000,     0.000,   1,1
   69,'1 ',1,   1,   1,    76.173,    27.848,     0.000,     0.000,     0.000,     0.000,   1,1
   70,'1 ',1,   1,   1,   101.740,    32.670,     0.000,     0.000,     0.000,     0.000,   1,1
   71,'1 ',1,   1,   1,    82.836,    28.465,     0.000,     0.000,     0.000,     0.000,   1,1
   72,'1 ',1,   1,   1,    74.279,    27.233,     0.000,     0.000,     0.000,     0.000,   1,1
   73,'1 ',1,   1,   1,    86.623,    28.569,     0.000,     0.000,     0.000,     0.000,   1,1
   74,'1 ',1,   1,   1,    95.182,    32.720,     0.000,     0.000,     0.000,     0.000,   1,1
   75,'1 ',1,   1,   1,    99.720,    33.318,     0.000,     0.000,     0.000,     0.000,   1,1
   76,'1 ',1,   1,   1,   125.121,    30.412,     0.000,     0.000,     0.000,     0.000,   1,1
   77,'1 ',1,   1,   1,    85.256,    24.616,     0.000,     0.000,     0.000,     0.000,   1,1
   78,'1 ',1,   1,   1,   103.578,    29.525,     0.000,     0.000,     0.000,     0.000,   1,1
   79,'1 ',1,   1,   1,   135.003,    45.410,     0.000,     0.000,     0.000,     0.000,   1,1
   80,'1 ',1,   1,   1,   109.521,    32.626,     0.000,     0.000,     0.000,     0.000,   1,1
   81,'1 ',1,   1,   1,   117.515,    32.341,     0.000,     0.000,     0.000,     0.000,   1,1
   82,'1 ',1,   1,   1,    84.651,    25.176,     0.000,     0.000,     0.000,     0.000,   1,1
   83,'1 ',1,   1,   1,    88.852,    30.446,     0.000,     0.000,     0.000,     0.000,   1,1
   84,'1 ',1,   1,   1,    69.863,    25.721,     0.000,     0.000,     0.000,     0.000,   1,1
   85,'1 ',1,   1,   1,    76.482,    28.814,     0.000,     0.000,     0.000,     0.000,   1,1
   86,'1 ',1,   1,   1,   112.677,    33.791,     0.000,     0.000,     0.000,     0.000,   1,1
   87,'1 ',1,   1,   1,   126.859,    33.230,     0.000,     0.000,     0.000,     0.000,   1,1
   88,'1 ',1,   1,   1,   103.237,    34.772,     0.000,     0.000,     0.000,     0.000,   1,1
   89,'1 ',1,   1,   1,    82.949,    30.558,     0.000,     0.000,     0.000,     0.000,   1,1
   90,'1 ',1,   1,   1,    83.284,    29.698,     0.000,     0.000,     0.000,     0.000,   1,1
   91,'1 ',1,   1,   1,    96.256,    25.479,     0.000,     0.000,     0.000,     0.000,   1,1
   92,'1 ',1,   1,   1,    90.887,    30.104,     0.000,     0.000,     0.000,     0.000,   1,1
   93,'1 ',1,   1,   1,   102.565,    29.649,     0.000,     0.000,     0.000,     0.000,   1,1
   94,'1 ',1,   1,   1,   122.839,    37.181,     0.000,     0.000,     0.000,     0.000,   1,1
   95,'1 ',1,   1,   1,   113.832,    30.563,     0.000,     0.000,     0.000,     0.000,   1,1
   96,'1 ',1,   1,   1,   126.682,    37.979,     0.000,     0.000,     0.000,     0.000,   1,1
   97,'1 ',1,   1,   1,   124.844,    32.477,     0.000,     0.000,     0.000,     0.000,   1,1
   98,'1 ',1,   1,   1,   131.533,    32.700,     0.000,     0.000,     0.000,     0.000,   1,1
   99,'1 ',1,   1,   1,   124.976,    34.254,     0.000,     0.000,     0.000,     0.000,   1,1
  100,'1 ',1,   1,   1,   102.225,    29.880,     0.000,     0.000,     0.000,     0.000,   1,1
  101,'1 ',1,   1,   1,    96.349,    32.050,     0.000,     0.000,     0.000,     0.000,   1,1
  102,'1 ',1,   1,   1,    68.567,    26.292,     0.000,     0.000,     0.000,     0.000,   1,1
  103,'1 ',1,   1,   1,   145.749,    49.500,     0.000,     0.000,     0.000,     0.000,   1,1
  104,'1 ',1,   1,   1,   107.497,    32.734,     0.000,     0.000,     0.000,     0.000,   1,1
  105,'1 ',1,   1,   1,    83.835,    23.658,     0.000,     0.000,     0.000,     0.000,   1,1
  106,'1 ',1,   1,   1,    84.991,    28.720,     0.000,     0.000,     0.000,     0.000,   1,1
  107,'1 ',1,   1,   1,    95.886,    24.964,     0.000,     0.000,     0.000,     0.000,   1,1
  108,'1 ',1,   1,   1,   147.565,    42.155,     0.000,     0.000,     0.000,     0.000,   1,1
  109,'1 ',1,   1,   1,   117.304,    38.796,     0.000,     0.000,     0.000,     0.000,   1,1
  110,'1 ',1,   1,   1,    68.803,    21.817,     0.000,     0.000,     0.000,     0.000,   1,1
  111,'1 ',1,   1,   1,   111.952,    36.807,     0.000,     0.000,     0.000,     0.000,   1,1
  112,'1 ',1,   1,   1,   145.362,    39.099,     0.000,     0.000,     0.000,     0.000,   1,1
  113,'1 ',1,   1,   1,    68.059,    22.267,     0.000,     0.000,     0.000,     0.000,   1,1
  114,'1 ',1,   1,   1,    70.351,    27.457,     0.000,     0.000,     0.000,     0.000,   1,1
  115,'1 ',1,   1,   1,    77.602,    25.691,     0.000,     0.000,     0.000,     0.000,   1,1
  116,'1 ',1,   1,   1,   130.802,    34.216,     0.000,     0.000,     0.000,     0.000,   1,1
  117,'1 ',1,   1,   1,   103.758,    31.214,     0.000,     0.000,     0.000,     0.000,   1,1
  118,'1 ',1,   1,   1,    69.339,    25.885,     0.000,     0.000,     0.000,     0.000,   1,1
  119,'1 ',1,   1,   1,   125.525,    37.260,     0.000,     0.000,     0.000,     0.000,   1,1
  120,'1 ',1,   1,   1,    83.731,    27.959,     0.000,     0.000,     0.000,     0.000,   1,1
  121,'1 ',1,   1,   1,    98.034,    31.028,     0.000,     0.000,     0.000,     0.000,   1,1
  122,'1 ',1,   1,   1,    83.311,    26.560,     0.000,     0.000,     0.000,     0.000,   1,1
  123,'1 ',1,   1,   1,   115.587,    32.541,     0.000,     0.000,     0.000,     0.000,   1,1
  124,'1 ',1,   1,   1,   117.835,    33.018,     0.000,     0.000,     0.000,     0.000,   1,1
  125,'1 ',1,   1,   1,   122.098,    34.563,     0.000,     0.000,     0.000,     0.000,   1,1
  126,'1 ',1,   1,   1,   104.035,    27.626,     0.000,     0.000,     0.000,     0.000,   1,1
  127,'1 ',1,   1,   1,   118.524,    31.700,     0.000,     0.000,     0.000,     0.000,   1,1
  128,'1 ',1,   1,   1,   127.454,    37.783,     0.000,     0.000,     0.000,     0.000,   1,1
  129,'1 ',1,   1,   1,   100.955,    34.051,     0.000,     0.000,     0.000,     0.000,   1,1
  130,'1 ',1,   1,   1,   106.381,    34.728,     0.000,     0.000,     0.000,     0.000,   1,1
  131,'1 ',1,   1,   1,   138.024,    36.649,     0.000,     0.000,     0.000,     0.000,   1,1
  132,'1 ',1,   1,   1,   129.917,    32.705,     0.000,     0.000,     0.000,     0.000,   1,1
  133,'1 ',1,   1,   1,    88.716,    26.137,     0.000,     0.000,     0.000,     0.000,   1,1
  134,'1 ',1,   1,   1,   102.892,    28.056,     0.000,     0.000,     0.000,     0.000,   1,1
  135,'1 ',1,   1,   1,    80.684,    26.340,     0.000,     0.000,     0.000,     0.000,   1,1
  136,'1 ',1,   1,   1,    95.989,    28.474,     0.000,     0.000,     0.000,     0.000,   1,1
  137,'1 ',1,   1,   1,    80.057,    24.710,     0.000,     0.000,     0.000,     0.000,   1,1
  138,'1 ',1,   1,   1,   124.540,    34.883,     0.000,     0.000,     0.000,     0.000,   1,1
  139,'1 ',1,   1,   1,   110.684,    31.168,     0.000,     0.000,     0.000,     0.000,   1,1
  140,'1 ',1,   1,   1,   138.525,    32.293,     0.000,     0.000,     0.000,     0.000,   1,1
  141,'1 ',1,   1,   1,   127.480,    37.152,     0.000,     0.000,     0.000,     0.000,   1,1
  142,'1 ',1,   1,   1,    90.044,    29.292,     0.000,     0.000,     0.000,     0.000,   1,1
  143,'1 ',1,   1,   1,   122.080,    37.503,     0.000,     0.000,     0.000,     0.000,   1,1
  144,'1 ',1,   1,   1,   141.362,    36.570,     0.000,     0.000,     0.000,     0.000,   1,1
  145,'1 ',1,   1,   1,   113.690,    35.116,     0.000,     0.000,     0.000,     0.000,   1,1
  146,'1 ',1,   1,   1,   122.123,    31.094,     0.000,     0.000,     0.000,     0.000,   1,1
  147,'1 ',1,   1,   1,    84.078,    27.948,     0.000,     0.000,     0.000,     0.000,   1,1
  148,'1 ',1,   1,   1,    93.166,    30.131,     0.000,     0.000,     0.000,     0.000,   1,1
  149,'1 ',1,   1,   1,   146.622,    40.778,     0.000,     0.000,     0.000,     0.000,   1,1
  150,'1 ',1,   1,   1,   109.294,    33.572,     0.000,     0.000,     0.000,     0.000,   1,1
  151,'1 ',1,   1,   1,    95.129,    32.910,     0.000,     0.000,     0.000,     0.000,   1,1
  152,'1 ',1,   1,   1,    79.434,    28.566,     0.000,     0.000,     0.000,     0.000,   1,1
  153,'1 ',1,   1,   1,    90.925,    33.947,     0.000,     0.000,     0.000,     0.000,   1,1
  154,'1 ',1,   1,   1,   108.705,    35.359,     0.000,     0.000,     0.000,     0.000,   1,1
  155,'1 ',1,   1,   1,    99.847,    32.388,     0.000,     0.000,     0.000,     0.000,   1,1
  156,'1 ',1,   1,   1,   102.892,    31.674,     0.000,     0.000,     0.000,     0.000,   1,1
  157,'1 ',1,   1,   1,   101.879,    33.048,     0.000,     0.000,     0.000,     0.000,   1,1
  158,'1 ',1,   1,   1,   101.578,    31.528,     0.000,     0.000,     0.000,     0.000,   1,1
  159,'1 ',1,   1,   1,   104.243,    30.085,     0.000,     0.000,     0.000,     0.000,   1,1
  160,'1 ',1,   1,   1,   127.105,    38.413,     0.000,     0.000,     0.000,     0.000,   1,1
  161,'1 ',1,   1,   1,    71.669,    24.762,     0.000,     0.000,     0.000,     0.000,   1,1
  162,'1 ',1,   1,   1,    98.153,    30.628,     0.000,     0.000,     0.000,     0.000,   1,1
  163,'1 ',1,   1,   1,   118.859,    31.117,     0.000,     0.000,     0.000,     0.000,   1,1
  164,'1 ',1,   1,   1,    95.431,    31.219,     0.000,     0.000,     0.000,     0.000,   1,1
  165,'1 ',1,   1,   1,   100.314,    31.951,     0.000,     0.000,     0.000,     0.000,   1,1
  166,'1 ',1,   1,   1,    93.348,    27.350,     0.000,     0.000,     0.000,     0.000,   1,1
  167,'1 ',1,   1,   1,    93.253,    31.378,     0.000,     0.000,     0.000,     0.000,   1,1
  168,'1 ',1,   1,   1,    64.917,    23.040,     0.000,     0.000,     0.000,     0.000,   1,1
  169,'1 ',1,   1,   1,    95.833,    27.889,     0.000,     0.000,     0.000,     0.000,   1,1
  170,'1 ',1,   1,   1,   109.244,    29.946,     0.000,     0.000,     0.000,     0.000,   1,1
  171,'1 ',1,   1,   1,    96.650,    29.487,     0.000,     0.000,     0.000,     0.000,   1,1
  172,'1 ',1,   1,   1,   109.900,    34.694,     0.000,     0.000,     0.000,     0.000,   1,1
  173,'1 ',1,   1,   1,    99.207,    33.321,     0.000,     0.000,     0.000,     0.000,   1,1
  174,'1 ',1,   1,   1,   116.952,    34.883,     0.000,     0.000,     0.000,     0.000,   1,1
  175,'1 ',1,   1,   1,    94.574,    32.306,     0.000,     0.000,     0.000,     0.000,   1,1
  176,'1 ',1,   1,   1,   114.953,    35.340,     0.000,     0.000,     0.000,     0.000,   1,1
  177,'1 ',1,   1,   1,   159.113,    50.582,     0.000,     0.000,     0.000,     0.000,   1,1
  178,'1 ',1,   1,   1,    87.352,    26.151,     0.000,     0.000,     0.000,     0.000,   1,1
  179,'1 ',1,   1,   1,     8.040,     2.593,     0.000,     0.000,     0.000,     0.000,   1,1
  180,'1 ',1,   1,   1,    11.710,     3.294,     0.000,     0.000,     0.000,     0.000,   1,1
  181,'1 ',1,   1,   1,     0.000,     0.000,     0.000,     0.000,     0.000,     0.000,   1,1
  182,'1 ',1,   1,   1,     0.000,     0.000,     0.000,     0.000,     0.000,     0.000,   1,1
  183,'1 ',1,   1,   1,     0.000,     0.000,     0.000,     0.000,     0.000,     0.000,   1,1
  184,'1 ',1,   1,   1,     0.000,     0.000,     0.000,     0.000,     0.000,     0.000,   1,1
  185,'1 ',1,   1,   1,     0.000,     0.000,     0.000,     0.000,     0.000,     0.000,   1,1
  186,'1 ',1,   1,   1,     0.000,     0.000,     0.000,     0.000,     0.000,     0.000,   1,1
  187,'1 ',1,   1,   1,     0.000,     0.000,     0.000,     0.000,     0.000,     0.000,   1,1
  188,'1 ',1,   1,   1,     0.000,     0.000,     0.000,     0.000,     0.000,     0.000,   1,1
  189,'1 ',1,   1,   1,     0.000,     0.000,     0.000,     0.000,     0.000,     0.000,   1,1
  190,'1 ',1,   1,   1,     0.000,     0.000,     0.000,     0.000,     0.000,     0.000,   1,1
  191,'1 ',1,   1,   1,     0.000,     0.000,     0.000,     0.000,     0.000,     0.000,   1,1
  192,'1 ',1,   1,   1,     0.000,     0.000,     0.000,     0.000,     0.000,     0.000,   1,1
  193,'1 ',1,   1,   1,     0.000,     0.000,     0.000,     0.000,     0.000,     0.000,   1,1
  194,'1 ',1,   1,   1,     0.000,     0.000,     0.000,     0.000,     0.000,     0.000,   1,1
  195,'1 ',1,   1,   1,     0.000,     0.000,     0.000,     0.000,     0.000,     0.000,   1,1
  196,'1 ',1,   1,   1,     0.000,     0.000,     0.000,     0.000,     0.000,     0.000,   1,1
  197,'1 ',1,   1,   1,     0.000,     0.000,     0.000,     0.000,     0.000,     0.000,   1,1
  198,'1 ',1,   1,   1,     0.000,     0.000,     0.000,     0.000,     0.000,     0.000,   1,1
  199,'1 ',1,   1,   1,     0.000,     0.000,     0.000,     0.000,     0.000,     0.000,   1,1
  200,'1 ',1,   1,   1,     0.000,     0.000,     0.000,     0.000,     0.000,     0.000,   1,1
...
0 / END OF LOAD DATA, BEGIN FIXED SHUNT DATA
    47,' 1', 1,     0.000,    20.000
0 / END OF FIXED SHUNT DATA, BEGIN GENERATOR DATA
    1,'1 ',     4.509,  -103.000,   103.000,  -103.000,1.02000,    0,   100.000,   0.00000,   1.00000,   0.00000,   0.00000,1.00000,1,  100.0,   338.000,     3.000,   1,1.0000,   0,1.0000,   0,1.0000,   0,1.0000,1, 1.0000
    3,'1 ',   447.890,    21.884,   392.000,  -209.000,1.02000,    0,   100.000,   0.00000,   1.00000,   0.00000,   0.00000,1.00000,1,  100.0,   686.000,   298.000,   1,1.0000,   0,1.0000,   0,1.0000,   0,1.0000,0, 1.0000
    7,'1 ',   208.915,   231.998,   385.000,  -205.000,1.02000,    0,   100.000,   0.00000,   1.00000,   0.00000,   0.00000,1.00000,1,  100.0,   674.000,   139.000,   1,1.0000,   0,1.0000,   0,1.0000,   0,1.0000,0, 1.0000
    8,'1 ',   284.065,   188.142,   349.000,  -186.000,1.02000,    0,   100.000,   0.00000,   1.00000,   0.00000,   0.00000,1.00000,1,  100.0,   611.000,   189.000,   1,1.0000,   0,1.0000,   0,1.0000,   0,1.0000,0, 1.0000
   10,'1 ',  2376.662,   271.603,  1298.000,  -692.000,1.02000,    0,   100.000,   0.00000,   1.00000,   0.00000,   0.00000,1.00000,1,  100.0,  2271.000,  1406.000,   1,1.0000,   0,1.0000,   0,1.0000,   0,1.0000,0, 1.0000
   24,'1 ',   432.861,   214.327,   309.000,  -165.000,1.02000,    0,   100.000,   0.00000,   1.00000,   0.00000,   0.00000,1.00000,1,  100.0,   541.000,   288.000,   1,1.0000,   0,1.0000,   0,1.0000,   0,1.0000,0, 1.0000
   26,'1 ',   180.359,    40.698,   171.000,   -91.000,1.02000,    0,   100.000,   0.00000,   1.00000,   0.00000,   0.00000,1.00000,1,  100.0,   300.000,   120.000,   1,1.0000,   0,1.0000,   0,1.0000,   0,1.0000,0, 1.0000
   28,'1 ',   324.645,    88.196,   338.000,  -180.000,1.02000,    0,   100.000,   0.00000,   1.00000,   0.00000,   0.00000,1.00000,1,  100.0,   592.000,   216.000,   1,1.0000,   0,1.0000,   0,1.0000,   0,1.0000,0, 1.0000
   30,'1 ',   187.874,   -12.220,   150.000,   -80.000,1.02000,    0,   100.000,   0.00000,   1.00000,   0.00000,   0.00000,1.00000,1,  100.0,   263.000,   125.000,   1,1.0000,   0,1.0000,   0,1.0000,   0,1.0000,0, 1.0000
   31,'1 ',   362.220,    63.419,   457.000,  -244.000,1.02000,    0,   100.000,   0.00000,   1.00000,   0.00000,   0.00000,1.00000,1,  100.0,   800.000,   241.000,   1,1.0000,   0,1.0000,   0,1.0000,   0,1.0000,0, 1.0000
   32,'1 ',   244.987,     5.771,   390.000,  -208.000,1.02000,    0,   100.000,   0.00000,   1.00000,   0.00000,   0.00000,1.00000,1,  100.0,   683.000,   163.000,   1,1.0000,   0,1.0000,   0,1.0000,   0,1.0000,0, 1.0000
   33,'1 ',   569.632,   280.802,   300.000,  -202.000,1.02000,    0,   100.000,   0.00000,   1.00000,   0.00000,   0.00000,1.00000,1,  100.0,   664.000,   379.000,   1,1.0000,   0,1.0000,   0,1.0000,   0,1.0000,0, 1.0000
   34,'1 ',   443.382,   149.446,   707.000,  -377.000,1.02000,    0,   100.000,   0.00000,   1.00000,   0.00000,   0.00000,1.00000,1,  100.0,  1237.000,   295.000,   1,1.0000,   0,1.0000,   0,1.0000,   0,1.0000,0, 1.0000
   35,'1 ',  1386.000,   300.000,   300.000,  -422.000,1.02000,    0,   100.000,   0.00000,   1.00000,   0.00000,   0.00000,1.00000,1,  100.0,  1386.000,   924.000,   1,1.0000,   0,1.0000,   0,1.0000,   0,1.0000,0, 1.0000
   36,'1 ',   210.418,   130.998,   336.000,  -179.000,1.02000,    0,   100.000,   0.00000,   1.00000,   0.00000,   0.00000,1.00000,1,  100.0,   588.000,   140.000,   1,1.0000,   0,1.0000,   0,1.0000,   0,1.0000,0, 1.0000
   37,'1 ',   150.299,    76.542,   324.000,  -173.000,1.02000,    0,   100.000,   0.00000,   1.00000,   0.00000,   0.00000,1.00000,1,  100.0,   567.000,   100.000,   1,1.0000,   0,1.0000,   0,1.0000,   0,1.0000,0, 1.0000
   38,'1 ',   312.622,    31.124,   498.000,  -266.000,1.02000,    0,   100.000,   0.00000,   1.00000,   0.00000,   0.00000,1.00000,1,  100.0,   872.000,   208.000,   1,1.0000,   0,1.0000,   0,1.0000,   0,1.0000,0, 1.0000
   49,'1 ',   480.956,   155.646,   347.000,  -185.000,1.02000,    0,   100.000,   0.00000,   1.00000,   0.00000,   0.00000,1.00000,1,  100.0,   607.000,   320.000,   1,1.0000,   0,1.0000,   0,1.0000,   0,1.0000,0, 1.0000
   52,'1 ',   243.484,   265.766,   938.000,  -500.000,1.02000,    0,   100.000,   0.00000,   1.00000,   0.00000,   0.00000,1.00000,1,  100.0,  1642.000,   162.000,   1,1.0000,   0,1.0000,   0,1.0000,   0,1.0000,0, 1.0000
   54,'1 ',   312.622,    21.593,   312.000,  -166.000,1.02000,    0,   100.000,   0.00000,   1.00000,   0.00000,   0.00000,1.00000,1,  100.0,   546.000,   208.000,   1,1.0000,   0,1.0000,   0,1.0000,   0,1.0000,0, 1.0000
   56,'1 ',   625.243,   252.754,   416.000,  -222.000,1.02000,    0,   100.000,   0.00000,   1.00000,   0.00000,   0.00000,1.00000,1,  100.0,   728.000,   416.000,   1,1.0000,   0,1.0000,   0,1.0000,   0,1.0000,0, 1.0000
   69,'1 ',   223.945,   182.076,   297.000,  -158.000,1.02000,    0,   100.000,   0.00000,   1.00000,   0.00000,   0.00000,1.00000,1,  100.0,   520.000,   149.000,   1,1.0000,   0,1.0000,   0,1.0000,   0,1.0000,0, 1.0000
   72,'1 ',   127.754,   150.000,   150.000,   -80.000,1.02000,    0,   100.000,   0.00000,   1.00000,   0.00000,   0.00000,1.00000,1,  100.0,   263.000,    85.000,   1,1.0000,   0,1.0000,   0,1.0000,   0,1.0000,0, 1.0000
   76,'1 ',   653.800,   277.663,   504.000,  -269.000,1.02000,    0,   100.000,   0.00000,   1.00000,   0.00000,   0.00000,1.00000,1,  100.0,   882.000,   435.000,   1,1.0000,   0,1.0000,   0,1.0000,   0,1.0000,0, 1.0000
   78,'1 ',   195.388,   -61.746,   165.000,   -88.000,1.02000,    0,   100.000,   0.00000,   1.00000,   0.00000,   0.00000,1.00000,1,  100.0,   288.000,   130.000,   1,1.0000,   0,1.0000,   0,1.0000,   0,1.0000,0, 1.0000
   80,'1 ',   169.838,   -58.692,   330.000,  -176.000,1.02000,    0,   100.000,   0.00000,   1.00000,   0.00000,   0.00000,1.00000,1,  100.0,   578.000,   113.000,   1,1.0000,   0,1.0000,   0,1.0000,   0,1.0000,0, 1.0000
   82,'1 ',   264.526,   -31.612,   179.000,   -95.000,1.02000,    0,   100.000,   0.00000,   1.00000,   0.00000,   0.00000,1.00000,1,  100.0,   313.000,   176.000,   1,1.0000,   0,1.0000,   0,1.0000,   0,1.0000,0, 1.0000
   84,'1 ',   254.005,    63.109,   508.000,  -271.000,1.02000,    0,   100.000,   0.00000,   1.00000,   0.00000,   0.00000,1.00000,1,  100.0,   888.000,   169.000,   1,1.0000,   0,1.0000,   0,1.0000,   0,1.0000,0, 1.0000
  103,'1 ',   312.622,   297.871,   523.000,  -279.000,1.02000,    0,   100.000,   0.00000,   1.00000,   0.00000,   0.00000,1.00000,1,  100.0,   916.000,   208.000,   1,1.0000,   0,1.0000,   0,1.0000,   0,1.0000,0, 1.0000
  120,'1 ',   241.981,   300.000,   300.000,  -258.000,1.02000,    0,   100.000,   0.00000,   1.00000,   0.00000,   0.00000,1.00000,1,  100.0,   845.000,   161.000,   1,1.0000,   0,1.0000,   0,1.0000,   0,1.0000,0, 1.0000
  128,'1 ',   270.538,    36.522,   216.000,  -115.000,1.02000,    0,   100.000,   0.00000,   1.00000,   0.00000,   0.00000,1.00000,1,  100.0,   378.000,   180.000,   1,1.0000,   0,1.0000,   0,1.0000,   0,1.0000,0, 1.0000
  130,'1 ',   172.844,   128.368,   153.000,   -81.000,1.02000,    0,   100.000,   0.00000,   1.00000,   0.00000,   0.00000,1.00000,1,  100.0,   267.000,   115.000,   1,1.0000,   0,1.0000,   0,1.0000,   0,1.0000,0, 1.0000
  141,'1 ',  1318.121,   300.000,   300.000,  -515.000,1.02000,    0,   100.000,   0.00000,   1.00000,   0.00000,   0.00000,1.00000,1,  100.0,  1691.000,   877.000,   1,1.0000,   0,1.0000,   0,1.0000,   0,1.0000,0, 1.0000
  143,'1 ',   232.963,   139.677,   173.000,   -92.000,1.02000,    0,   100.000,   0.00000,   1.00000,   0.00000,   0.00000,1.00000,1,  100.0,   303.000,   155.000,   1,1.0000,   0,1.0000,   0,1.0000,   0,1.0000,0, 1.0000
  146,'1 ',   450.896,   300.000,   300.000,  -185.000,1.02000,    0,   100.000,   0.00000,   1.00000,   0.00000,   0.00000,1.00000,1,  100.0,   607.000,   300.000,   1,1.0000,   0,1.0000,   0,1.0000,   0,1.0000,0, 1.0000
  149,'1 ',   274.000,    75.811,   157.000,   -83.000,1.02000,    0,   100.000,   0.00000,   1.00000,   0.00000,   0.00000,1.00000,1,  100.0,   274.000,   186.000,   1,1.0000,   0,1.0000,   0,1.0000,   0,1.0000,0, 1.0000
  157,'1 ',   432.861,    92.006,   298.000,  -159.000,1.02000,    0,   100.000,   0.00000,   1.00000,   0.00000,   0.00000,1.00000,1,  100.0,   521.000,   288.000,   1,1.0000,   0,1.0000,   0,1.0000,   0,1.0000,0, 1.0000
  162,'1 ',   345.687,   159.434,   363.000,  -194.000,1.02000,    0,   100.000,   0.00000,   1.00000,   0.00000,   0.00000,1.00000,1,  100.0,   636.000,   230.000,   1,1.0000,   0,1.0000,   0,1.0000,   0,1.0000,0, 1.0000
  165,'1 ',  1175.337,   154.330,   745.000,  -397.000,1.02000,    0,   100.000,   0.00000,   1.00000,   0.00000,   0.00000,1.00000,1,  100.0,  1304.000,   782.000,   1,1.0000,   0,1.0000,   0,1.0000,   0,1.0000,0, 1.0000
  166,'1 ',   416.328,   161.295,   474.000,  -253.000,1.02000,    0,   100.000,   0.00000,   1.00000,   0.00000,   0.00000,1.00000,1,  100.0,   830.000,   277.000,   1,1.0000,   0,1.0000,   0,1.0000,   0,1.0000,0, 1.0000
  175,'1 ',   314.125,    81.689,   358.000,  -191.000,1.02000,    0,   100.000,   0.00000,   1.00000,   0.00000,   0.00000,1.00000,1,  100.0,   626.000,   209.000,   1,1.0000,   0,1.0000,   0,1.0000,   0,1.0000,0, 1.0000
  176,'1 ',   129.257,    64.598,   153.000,   -81.000,1.02000,    0,   100.000,   0.00000,   1.00000,   0.00000,   0.00000,1.00000,1,  100.0,   267.000,    86.000,   1,1.0000,   0,1.0000,   0,1.0000,   0,1.0000,0, 1.0000
0 / END OF GENERATOR DATA, BEGIN BRANCH DATA
    1,     2,'1 ', 0.00598, 0.12062,1.98515, 414.51, 414.51, 414.51,  0.00000,  0.00000,  0.00000,  0.00000,1,1, 239.2,   1,1.0000,   0,1.0000,   0,1.0000,   0,1.0000
    2,    39,'1 ', 0.00868, 0.06020,0.52937, 530.03, 530.03, 530.03,  0.00000,  0.00000,  0.00000,  0.00000,1,1,  86.8,   1,1.0000,   0,1.0000,   0,1.0000,   0,1.0000
    2,   139,'1 ', 0.00339, 0.02318,0.20974, 530.03, 530.03, 530.03,  0.00000,  0.00000,  0.00000,  0.00000,1,1,  33.9,   1,1.0000,   0,1.0000,   0,1.0000,   0,1.0000
    2,   181,'1 ', 0.00761, 0.05275,0.46393, 530.03, 530.03, 530.03,  0.00000,  0.00000,  0.00000,  0.00000,1,1,  76.1,   1,1.0000,   0,1.0000,   0,1.0000,   0,1.0000
    2,   201,'1 ', 0.00274, 0.01875,0.16965, 530.03, 530.03, 530.03,  0.00000,  0.00000,  0.00000,  0.00000,1,1,  27.4,   1,1.0000,   0,1.0000,   0,1.0000,   0,1.0000
    3,    18,'1 ', 0.00383, 0.15813,0.09685, 316.20, 316.20, 316.20,  0.00000,  0.00000,  0.00000,  0.00000,1,1,  60.3,   1,1.0000,   0,1.0000,   0,1.0000,   0,1.0000
    4,    75,'1 ', 0.01684, 0.03812,0.00951, 107.32, 107.32, 107.32,  0.00000,  0.00000,  0.00000,  0.00000,1,1,   9.2,   1,1.0000,   0,1.0000,   0,1.0000,   0,1.0000
    5,     8,'1 ', 0.00296, 0.03933,0.08406, 578.83, 578.83, 578.83,  0.00000,  0.00000,  0.00000,  0.00000,1,1,  27.9,   1,1.0000,   0,1.0000,   0,1.0000,   0,1.0000
    5,   184,'1 ', 0.04502, 0.11101,0.17939, 178.87, 178.87, 178.87,  0.00000,  0.00000,  0.00000,  0.00000,1,1,  68.6,   1,1.0000,   0,1.0000,   0,1.0000,   0,1.0000
    5,   207,'1 ', 0.00112, 0.01328,0.03027, 541.39, 541.39, 541.39,  0.00000,  0.00000,  0.00000,  0.00000,1,1,   9.7,   1,1.0000,   0,1.0000,   0,1.0000,   0,1.0000
    6,     7,'1 ', 0.06200, 0.14575,0.03365, 107.32, 107.32, 107.32,  0.00000,  0.00000,  0.00000,  0.00000,1,1,  34.0,   1,1.0000,   0,1.0000,   0,1.0000,   0,1.0000
    6,    70,'1 ', 0.03364, 0.07769,0.01859, 107.32, 107.32, 107.32,  0.00000,  0.00000,  0.00000,  0.00000,1,1,  18.5,   1,1.0000,   0,1.0000,   0,1.0000,   0,1.0000
    8,    54,'1 ', 0.00033, 0.00508,0.01216, 665.28, 665.28, 665.28,  0.00000,  0.00000,  0.00000,  0.00000,1,1,   3.8,   1,1.0000,   0,1.0000,   0,1.0000,   0,1.0000
  187,     9,'1 ', 0.00684, 0.04742,0.41703, 530.03, 530.03, 530.03,  0.00000,  0.00000,  0.00000,  0.00000,1,1,  68.4,   1,1.0000,   0,1.0000,   0,1.0000,   0,1.0000
   10,    11,'1 ', 0.00032, 0.00856,0.00495, 566.01, 566.01, 566.01,  0.00000,  0.00000,  0.00000,  0.00000,1,1,   3.2,   1,1.0000,   0,1.0000,   0,1.0000,   0,1.0000
   10,    70,'1 ', 0.00580, 0.06727,0.02063, 324.83, 324.83, 324.83,  0.00000,  0.00000,  0.00000,  0.00000,1,1,  18.1,   1,1.0000,   0,1.0000,   0,1.0000,   0,1.0000
   11,   173,'1 ', 0.01667, 0.12408,0.03486, 237.35, 237.35, 237.35,  0.00000,  0.00000,  0.00000,  0.00000,1,1,  31.9,   1,1.0000,   0,1.0000,   0,1.0000,   0,1.0000
  188,    13,'1 ', 0.00011, 0.00195,0.02003,1045.73,1045.73,1045.73,  0.00000,  0.00000,  0.00000,  0.00000,1,1,   3.0,   1,1.0000,   0,1.0000,   0,1.0000,   0,1.0000
   13,   190,'1 ', 0.00085, 0.01791,0.26779,1060.07,1060.07,1060.07,  0.00000,  0.00000,  0.00000,  0.00000,1,1,  33.9,   1,1.0000,   0,1.0000,   0,1.0000,   0,1.0000
   14,    15,'1 ', 0.03611, 0.08904,0.14388, 178.87, 178.87, 178.87,  0.00000,  0.00000,  0.00000,  0.00000,1,1,  55.0,   1,1.0000,   0,1.0000,   0,1.0000,   0,1.0000
   14,   177,'1 ', 0.01882, 0.06776,0.11459, 229.46, 229.46, 229.46,  0.00000,  0.00000,  0.00000,  0.00000,1,1,  42.5,   1,1.0000,   0,1.0000,   0,1.0000,   0,1.0000
   15,    61,'1 ', 0.00413, 0.02750,0.05200, 353.36, 353.36, 353.36,  0.00000,  0.00000,  0.00000,  0.00000,1,1,  18.4,   1,1.0000,   0,1.0000,   0,1.0000,   0,1.0000
  184,    15,'1 ', 0.00343, 0.04204,0.08894, 541.39, 541.39, 541.39,  0.00000,  0.00000,  0.00000,  0.00000,1,1,  29.7,   1,1.0000,   0,1.0000,   0,1.0000,   0,1.0000
   16,   149,'1 ', 0.01423, 0.04695,0.01231, 137.68, 137.68, 137.68,  0.00000,  0.00000,  0.00000,  0.00000,1,1,  11.6,   1,1.0000,   0,1.0000,   0,1.0000,   0,1.0000
   17,    18,'1 ', 0.05670, 0.19450,0.04709, 137.68, 137.68, 137.68,  0.00000,  0.00000,  0.00000,  0.00000,1,1,  46.1,   1,1.0000,   0,1.0000,   0,1.0000,   0,1.0000
   17,   145,'1 ', 0.04673, 0.10452,0.02669, 107.32, 107.32, 107.32,  0.00000,  0.00000,  0.00000,  0.00000,1,1,  25.6,   1,1.0000,   0,1.0000,   0,1.0000,   0,1.0000
   19,    96,'1 ', 0.05510, 0.12952,0.02990, 107.32, 107.32, 107.32,  0.00000,  0.00000,  0.00000,  0.00000,1,1,  30.2,   1,1.0000,   0,1.0000,   0,1.0000,   0,1.0000
   19,   105,'1 ', 0.00053, 0.01276,0.00724, 522.03, 522.03, 522.03,  0.00000,  0.00000,  0.00000,  0.00000,1,1,   4.7,   1,1.0000,   0,1.0000,   0,1.0000,   0,1.0000
   19,   110,'1 ', 0.00509, 0.02371,0.00609, 173.53, 173.53, 173.53,  0.00000,  0.00000,  0.00000,  0.00000,1,1,   5.8,   1,1.0000,   0,1.0000,   0,1.0000,   0,1.0000
   19,   118,'1 ', 0.00064, 0.01345,0.00755, 474.70, 474.70, 474.70,  0.00000,  0.00000,  0.00000,  0.00000,1,1,   4.9,   1,1.0000,   0,1.0000,   0,1.0000,   0,1.0000
   19,   175,'1 ', 0.05620, 0.25162,0.07017, 173.53, 173.53, 173.53,  0.00000,  0.00000,  0.00000,  0.00000,1,1,  64.5,   1,1.0000,   0,1.0000,   0,1.0000,   0,1.0000
   21,   129,'1 ', 0.00698, 0.03501,0.01005, 187.39, 187.39, 187.39,  0.00000,  0.00000,  0.00000,  0.00000,1,1,   9.1,   1,1.0000,   0,1.0000,   0,1.0000,   0,1.0000
   21,   130,'1 ', 0.00738, 0.06070,0.01884, 261.01, 261.01, 261.01,  0.00000,  0.00000,  0.00000,  0.00000,1,1,  16.4,   1,1.0000,   0,1.0000,   0,1.0000,   0,1.0000
   22,    23,'1 ', 0.01398, 0.03448,0.05572, 178.87, 178.87, 178.87,  0.00000,  0.00000,  0.00000,  0.00000,1,1,  21.3,   1,1.0000,   0,1.0000,   0,1.0000,   0,1.0000
   23,    24,'1 ', 0.04301, 0.10605,0.17137, 178.87, 178.87, 178.87,  0.00000,  0.00000,  0.00000,  0.00000,1,1,  65.6,   1,1.0000,   0,1.0000,   0,1.0000,   0,1.0000
   23,    90,'1 ', 0.00690, 0.02037,0.03648, 206.75, 206.75, 206.75,  0.00000,  0.00000,  0.00000,  0.00000,1,1,  13.2,   1,1.0000,   0,1.0000,   0,1.0000,   0,1.0000
   23,    91,'1 ', 0.01279, 0.05439,0.09557, 262.53, 262.53, 262.53,  0.00000,  0.00000,  0.00000,  0.00000,1,1,  35.1,   1,1.0000,   0,1.0000,   0,1.0000,   0,1.0000
   24,   177,'1 ', 0.00208, 0.01428,0.02528, 353.36, 353.36, 353.36,  0.00000,  0.00000,  0.00000,  0.00000,1,1,   9.2,   1,1.0000,   0,1.0000,   0,1.0000,   0,1.0000
   25,   133,'1 ', 0.00613, 0.04868,0.09258, 395.58, 395.58, 395.58,  0.00000,  0.00000,  0.00000,  0.00000,1,1,  32.6,   1,1.0000,   0,1.0000,   0,1.0000,   0,1.0000
   25,   168,'1 ', 0.01816, 0.04527,0.07160, 178.87, 178.87, 178.87,  0.00000,  0.00000,  0.00000,  0.00000,1,1,  27.7,   1,1.0000,   0,1.0000,   0,1.0000,   0,1.0000
   26,    42,'1 ', 0.00714, 0.04949,0.43522, 530.03, 530.03, 530.03,  0.00000,  0.00000,  0.00000,  0.00000,1,1,  71.4,   1,1.0000,   0,1.0000,   0,1.0000,   0,1.0000
   26,    43,'1 ', 0.00133, 0.00911,0.08245, 530.03, 530.03, 530.03,  0.00000,  0.00000,  0.00000,  0.00000,1,1,  13.3,   1,1.0000,   0,1.0000,   0,1.0000,   0,1.0000
   26,   202,'1 ', 0.01045, 0.07245,0.63716, 530.03, 530.03, 530.03,  0.00000,  0.00000,  0.00000,  0.00000,1,1, 104.5,   1,1.0000,   0,1.0000,   0,1.0000,   0,1.0000
   27,   160,'1 ', 0.02217, 0.05468,0.08835, 178.87, 178.87, 178.87,  0.00000,  0.00000,  0.00000,  0.00000,1,1,  33.8,   1,1.0000,   0,1.0000,   0,1.0000,   0,1.0000
   28,    77,'1 ', 0.06656, 0.15647,0.03612, 107.32, 107.32, 107.32,  0.00000,  0.00000,  0.00000,  0.00000,1,1,  36.5,   1,1.0000,   0,1.0000,   0,1.0000,   0,1.0000
   28,    88,'1 ', 0.00116, 0.01860,0.00608, 418.29, 418.29, 418.29,  0.00000,  0.00000,  0.00000,  0.00000,1,1,   5.1,   1,1.0000,   0,1.0000,   0,1.0000,   0,1.0000
   29,    84,'1 ', 0.00955, 0.09168,0.02681, 283.00, 283.00, 283.00,  0.00000,  0.00000,  0.00000,  0.00000,1,1,  24.0,   1,1.0000,   0,1.0000,   0,1.0000,   0,1.0000
   39,    43,'1 ', 0.00577, 0.04003,0.35199, 530.03, 530.03, 530.03,  0.00000,  0.00000,  0.00000,  0.00000,1,1,  57.7,   1,1.0000,   0,1.0000,   0,1.0000,   0,1.0000
   40,    43,'1 ', 0.00360, 0.02314,0.23770, 530.03, 530.03, 530.03,  0.00000,  0.00000,  0.00000,  0.00000,1,1,  36.0,   1,1.0000,   0,1.0000,   0,1.0000,   0,1.0000
  202,    41,'1 ', 0.00271, 0.01880,0.16536, 530.03, 530.03, 530.03,  0.00000,  0.00000,  0.00000,  0.00000,1,1,  27.1,   1,1.0000,   0,1.0000,   0,1.0000,   0,1.0000
   42,   167,'1 ', 0.00687, 0.04934,0.40438, 530.03, 530.03, 530.03,  0.00000,  0.00000,  0.00000,  0.00000,1,1,  68.7,   1,1.0000,   0,1.0000,   0,1.0000,   0,1.0000
   44,    55,'1 ', 0.00742, 0.02703,0.04470, 229.46, 229.46, 229.46,  0.00000,  0.00000,  0.00000,  0.00000,1,1,  16.8,   1,1.0000,   0,1.0000,   0,1.0000,   0,1.0000
   45,    52,'1 ', 0.00089, 0.00836,0.07659, 652.53, 652.53, 652.53,  0.00000,  0.00000,  0.00000,  0.00000,1,1,  12.3,   1,1.0000,   0,1.0000,   0,1.0000,   0,1.0000
  206,    45,'1 ', 0.00042, 0.00286,0.02611, 530.03, 530.03, 530.03,  0.00000,  0.00000,  0.00000,  0.00000,1,1,   4.2,   1,1.0000,   0,1.0000,   0,1.0000,   0,1.0000
   45,   212,'1 ', 0.00103, 0.00976,0.08940, 652.53, 652.53, 652.53,  0.00000,  0.00000,  0.00000,  0.00000,1,1,  14.3,   1,1.0000,   0,1.0000,   0,1.0000,   0,1.0000
   46,    47,'1 ', 0.01683, 0.10628,0.02894, 212.01, 212.01, 212.01,  0.00000,  0.00000,  0.00000,  0.00000,1,1,  26.9,   1,1.0000,   0,1.0000,   0,1.0000,   0,1.0000
   47,    63,'1 ', 0.03810, 0.08957,0.02068, 107.32, 107.32, 107.32,  0.00000,  0.00000,  0.00000,  0.00000,1,1,  20.9,   1,1.0000,   0,1.0000,   0,1.0000,   0,1.0000
   48,   150,'1 ', 0.00352, 0.02444,0.21489, 530.03, 530.03, 530.03,  0.00000,  0.00000,  0.00000,  0.00000,1,1,  35.2,   1,1.0000,   0,1.0000,   0,1.0000,   0,1.0000
  182,    48,'1 ', 0.00342, 0.02370,0.20841, 530.03, 530.03, 530.03,  0.00000,  0.00000,  0.00000,  0.00000,1,1,  34.2,   1,1.0000,   0,1.0000,   0,1.0000,   0,1.0000
   49,    65,'1 ', 0.00180, 0.03771,0.02118, 474.70, 474.70, 474.70,  0.00000,  0.00000,  0.00000,  0.00000,1,1,  13.8,   1,1.0000,   0,1.0000,   0,1.0000,   0,1.0000
   50,    65,'1 ', 0.00526, 0.03751,0.01148, 237.35, 237.35, 237.35,  0.00000,  0.00000,  0.00000,  0.00000,1,1,  10.1,   1,1.0000,   0,1.0000,   0,1.0000,   0,1.0000
   51,    68,'1 ', 0.00406, 0.03734,0.01192, 283.00, 283.00, 283.00,  0.00000,  0.00000,  0.00000,  0.00000,1,1,  10.2,   1,1.0000,   0,1.0000,   0,1.0000,   0,1.0000
   51,    72,'1 ', 0.00071, 0.00719,0.00234, 304.04, 304.04, 304.04,  0.00000,  0.00000,  0.00000,  0.00000,1,1,   2.0,   1,1.0000,   0,1.0000,   0,1.0000,   0,1.0000
  183,    52,'1 ', 0.00205, 0.02164,0.20301, 707.51, 707.51, 707.51,  0.00000,  0.00000,  0.00000,  0.00000,1,1,  32.1,   1,1.0000,   0,1.0000,   0,1.0000,   0,1.0000
...